Version 4
SHEET 1 1560 680
WIRE -336 -160 -480 -160
WIRE -112 -160 -336 -160
WIRE 176 -160 -32 -160
WIRE 224 -160 176 -160
WIRE 272 -160 224 -160
WIRE 320 -160 272 -160
WIRE 416 -160 384 -160
WIRE 480 -160 416 -160
WIRE 592 -160 544 -160
WIRE 720 -160 592 -160
WIRE 976 -160 720 -160
WIRE 1056 -160 976 -160
WIRE 416 -128 416 -160
WIRE 1056 -128 1056 -160
WIRE -480 -112 -480 -160
WIRE 592 -80 592 -160
WIRE 176 -16 176 -160
WIRE 272 -16 272 -160
WIRE 416 -16 416 -48
WIRE 1056 16 1056 -48
WIRE -480 32 -480 -32
WIRE -336 48 -336 -160
WIRE -208 48 -336 48
WIRE -48 48 -208 48
WIRE 80 48 -48 48
WIRE 592 48 592 0
WIRE 592 48 368 48
WIRE 720 112 720 -160
WIRE -336 144 -336 48
WIRE -208 144 -208 128
WIRE 0 144 -208 144
WIRE 80 144 0 144
WIRE -208 160 -208 144
WIRE -48 160 -48 48
WIRE 720 224 720 176
WIRE 48 240 -48 240
WIRE 80 240 48 240
WIRE 544 240 368 240
WIRE 640 240 544 240
WIRE -336 256 -336 208
WIRE -208 256 -208 240
WIRE 544 272 544 240
WIRE 640 272 640 240
WIRE 80 336 0 336
WIRE 416 336 368 336
WIRE 0 368 0 336
WIRE 416 368 416 336
WIRE 640 400 640 352
WIRE 0 496 0 448
WIRE 224 496 224 400
WIRE 416 496 416 432
WIRE 544 496 544 336
WIRE 640 496 640 464
FLAG 224 496 0
FLAG 416 -16 0
FLAG -480 32 0
FLAG 1056 16 0
FLAG -336 -160 IN
FLAG 976 -160 OUT
FLAG 416 336 SS
FLAG -336 256 0
FLAG 0 496 0
FLAG 416 496 0
FLAG 544 496 0
FLAG 640 496 0
FLAG 720 224 0
FLAG 544 240 Vc
FLAG 224 -160 SW1/2
FLAG 48 240 FT
FLAG -208 256 0
FLAG 0 144 SHDN
SYMBOL PowerProducts\\LT3579 224 192 R0
SYMATTR InstName U1
SYMBOL res 624 256 R0
SYMATTR InstName R_c
SYMATTR Value 10k
SYMBOL cap 624 400 R0
WINDOW 3 36 57 Left 2
SYMATTR Value 2.2n
SYMATTR InstName C_c
SYMBOL cap 560 336 R180
WINDOW 0 24 56 Left 2
WINDOW 3 24 8 Left 2
SYMATTR InstName C_F
SYMATTR Value 47p
SYMBOL cap 400 368 R0
SYMATTR InstName C_SS
SYMATTR Value 0.22µ
SYMBOL res -16 352 R0
SYMATTR InstName R_T
SYMATTR Value 124k
SYMBOL res 576 -96 R0
SYMATTR InstName R_FB
SYMATTR Value 153k
SYMBOL cap 704 112 R0
WINDOW 40 24 84 Left 2
SYMATTR SpiceLine2 x3
SYMATTR InstName C_OUT
SYMATTR Value 10µ
SYMATTR SpiceLine V=25 Irms=0 Rser=0.001 Lser=0
SYMBOL cap -352 144 R0
SYMATTR InstName C_IN
SYMATTR Value 4.7
SYMBOL res -64 144 R0
SYMATTR InstName R_FAULT
SYMATTR Value 100k
SYMBOL ind2 -16 -144 M270
WINDOW 0 32 56 VTop 2
WINDOW 3 5 56 VBottom 2
SYMATTR InstName L1
SYMATTR Value 8.2µ
SYMATTR Type ind
SYMBOL cap 384 -176 R90
WINDOW 0 0 32 VBottom 2
WINDOW 3 32 32 VTop 2
SYMATTR InstName C1
SYMATTR Value 4.7µ
SYMBOL ind2 400 -144 R0
SYMATTR InstName L2
SYMATTR Type ind
SYMATTR Value 8.2µ
SYMBOL voltage -480 -128 R0
WINDOW 123 0 0 Left 0
WINDOW 39 0 0 Left 0
SYMATTR InstName V_Battery
SYMATTR Value 13
SYMBOL res 1040 -144 R0
SYMATTR InstName R_LOAD
SYMATTR Value 14
SYMBOL res -224 32 R0
SYMATTR InstName R_UVLO1
SYMATTR Value 13k
SYMBOL res -224 144 R0
SYMATTR InstName R_UVLO2
SYMATTR Value 5k
SYMBOL schottky 480 -144 R270
WINDOW 0 32 32 VTop 2
WINDOW 3 0 32 VBottom 2
SYMATTR InstName D1
TEXT 168 -216 Left 2 !K1 L1 L2 1
TEXT 776 328 Left 2 !.tran 0 20m 1m startup
TEXT -456 568 Left 2 ;Note: C_SS is actually 0.22u  but has been changed to 0.022u  so that the rise time is smaller. Increases speed of simulation.
TEXT 816 96 Left 2 ;Cout: Three parallel capacitors \nfor a total capacitance of 27.41u
