Version 4
SHEET 1 3924 680
WIRE -656 -160 -800 -160
WIRE -352 -160 -656 -160
WIRE 176 -160 -272 -160
WIRE 224 -160 176 -160
WIRE 272 -160 224 -160
WIRE 320 -160 272 -160
WIRE 512 -160 384 -160
WIRE 656 -160 512 -160
WIRE 816 -160 720 -160
WIRE 1088 -160 816 -160
WIRE 1104 -160 1088 -160
WIRE 1232 -160 1104 -160
WIRE 1424 -160 1328 -160
WIRE 1536 -160 1424 -160
WIRE 1680 -160 1536 -160
WIRE 512 -128 512 -160
WIRE 1680 -128 1680 -160
WIRE -800 -112 -800 -160
WIRE 1312 -96 1312 -112
WIRE 1424 -96 1424 -160
WIRE 816 -80 816 -160
WIRE 1088 -80 1088 -160
WIRE 176 -16 176 -160
WIRE 272 -16 272 -160
WIRE 512 -16 512 -48
WIRE -800 32 -800 -32
WIRE -656 48 -656 -160
WIRE -448 48 -656 48
WIRE -208 48 -448 48
WIRE 80 48 -208 48
WIRE 496 48 368 48
WIRE 816 48 816 0
WIRE 816 48 496 48
WIRE 1424 64 1424 -32
WIRE 1680 64 1680 -48
WIRE -656 144 -656 48
WIRE -448 144 -448 128
WIRE -160 144 -448 144
WIRE 80 144 -160 144
WIRE 480 144 368 144
WIRE 1088 144 1088 0
WIRE 1088 144 480 144
WIRE 1312 144 1312 -96
WIRE 1312 144 1088 144
WIRE -448 160 -448 144
WIRE -208 160 -208 48
WIRE 48 240 -208 240
WIRE 80 240 48 240
WIRE 688 240 368 240
WIRE 864 240 688 240
WIRE -656 256 -656 208
WIRE -448 256 -448 240
WIRE 688 272 688 240
WIRE 864 272 864 240
WIRE 80 336 -160 336
WIRE 416 336 368 336
WIRE -160 352 -160 336
WIRE 416 368 416 336
WIRE 864 400 864 352
WIRE -160 480 -160 432
WIRE 224 496 224 400
WIRE 416 496 416 432
WIRE 688 496 688 336
WIRE 864 496 864 464
FLAG 224 496 0
FLAG 512 -16 0
FLAG -800 32 0
FLAG 1680 64 0
FLAG -656 -160 IN
FLAG 1536 -160 SOURCE
FLAG 416 336 SS
FLAG -656 256 0
FLAG -160 480 0
FLAG 416 496 0
FLAG 688 496 0
FLAG 864 496 0
FLAG 1424 64 0
FLAG 688 240 Vc
FLAG 224 -160 SW1/2
FLAG 48 240 FT
FLAG -448 256 0
FLAG -160 144 SHDN
FLAG 480 144 GATE
FLAG 496 48 FB
FLAG 1104 -160 DRAIN
SYMBOL PowerProducts\\LT3579 224 192 R0
SYMATTR InstName U1
SYMBOL res 848 256 R0
SYMATTR InstName R_c
SYMATTR Value {mc(12k,0.5)}
SYMATTR SpiceLine tol=5
SYMBOL cap 848 400 R0
WINDOW 3 36 57 Left 2
SYMATTR Value {mc(2.2n,0.5)}
SYMATTR InstName C_c
SYMATTR SpiceLine V=450
SYMBOL cap 704 336 R180
WINDOW 0 24 56 Left 2
WINDOW 3 24 8 Left 2
SYMATTR InstName C_F
SYMATTR Value {mc(47p,0.05)}
SYMATTR SpiceLine V=50
SYMBOL cap 400 368 R0
SYMATTR InstName C_SS
SYMATTR Value 0.022µ
SYMATTR SpiceLine V=25
SYMBOL res -176 336 R0
SYMATTR InstName R_T
SYMATTR Value {mc(124k,0.05)}
SYMATTR SpiceLine tol=5
SYMBOL res 800 -96 R0
SYMATTR InstName R_FB
SYMATTR Value {mc(150k,0.01)}
SYMATTR SpiceLine tol=1
SYMBOL cap 1408 -96 R0
WINDOW 123 48 35 Left 2
WINDOW 3 40 63 Left 2
SYMATTR Value2 x3
SYMATTR Value {mc(4.7u,0.1)}
SYMATTR InstName C_OUT
SYMATTR SpiceLine V=25 Irms=0 Rser=0.01 Lser=0 Rpar=0
SYMBOL cap -672 144 R0
WINDOW 123 24 84 Left 2
SYMATTR Value2 x2
SYMATTR InstName C_IN
SYMATTR Value {mc(4.7u,0.1)}
SYMATTR SpiceLine V=25 Irms=0 Rser=0.01 Lser=0
SYMBOL res -224 144 R0
SYMATTR InstName R_FAULT
SYMATTR Value {mc(100k,0.01)}
SYMATTR SpiceLine tol=1
SYMBOL ind2 -256 -144 M270
WINDOW 0 32 56 VTop 2
WINDOW 3 5 56 VBottom 2
SYMATTR InstName L1
SYMATTR Value {mc(8.2u,0.2)}
SYMATTR Type ind
SYMATTR SpiceLine Ipk=10 Rser=55m
SYMBOL cap 384 -176 R90
WINDOW 0 0 32 VBottom 2
WINDOW 3 33 11 VTop 2
SYMATTR InstName C1
SYMATTR Value {mc(4.7u,0.1)}
SYMATTR SpiceLine V=25 Rser=0.01
SYMBOL ind2 496 -144 R0
SYMATTR InstName L2
SYMATTR Type ind
SYMATTR Value {mc(8.2u,0.2)}
SYMATTR SpiceLine Ipk=10 Rser=55m
SYMBOL voltage -800 -128 R0
WINDOW 123 0 0 Left 0
WINDOW 39 -142 16 Left 2
WINDOW 3 24 96 Invisible 2
WINDOW 0 -143 -11 Left 2
SYMATTR Value {mc(13,0.25)}; Rser=0.4
SYMATTR InstName V_Battery
SYMBOL res 1664 -144 R0
SYMATTR InstName R_LOAD
SYMATTR Value {mc(18,0.2)}
SYMBOL res -464 32 R0
SYMATTR InstName R_UVLO1
SYMATTR Value {mc(30k,0.01)}
SYMATTR SpiceLine tol=1
SYMBOL res -464 144 R0
SYMATTR InstName R_UVLO2
SYMATTR Value {mc(5k,0.01)}
SYMATTR SpiceLine tol=0.1
SYMBOL res 1072 -96 R0
SYMATTR InstName R_GATE
SYMATTR Value {mc(10k,0.005)}
SYMBOL AutoGenerated\\RQ5E050AT 1280 -112 R270
SYMATTR InstName U2
SYMBOL schottky 656 -144 R270
WINDOW 0 32 32 VTop 2
WINDOW 3 0 32 VBottom 2
SYMATTR InstName D1
SYMATTR Value MBRS360
SYMATTR Description Diode
SYMATTR Type diode
TEXT 168 -216 Left 2 !K1 L1 L2 0.98
TEXT -456 568 Left 2 ;Note: C_SS is actually 0.22u  but has been changed to 0.022u  so that the rise time is smaller. Increases speed of simulation.
TEXT 1328 -88 Left 2 ;0A
TEXT -296 384 Left 2 ;700 khz
TEXT 728 216 Left 2 ;Compensator Circuit
TEXT 920 272 Left 2 ;100k Potentiometer = R_c for testing board
TEXT 1528 -368 Left 2 !.tran 0 2ms 1.8ms startup
TEXT -16 -240 Left 2 ;MSD1278T Coupling Coefficient = 0.98
TEXT -424 -464 Left 7 ;Monte Carlo Simulation Test
TEXT 1528 -400 Left 2 !.step param X 1 100 1
TEXT 1528 -336 Left 2 ;Monte carlo sim is set so that 100 trials are run, each for 2ms.
TEXT -16 -384 Left 5 ;w/ Varying Input Voltage
