Version 4
SHEET 1 3924 680
WIRE -944 -912 -1104 -912
WIRE -1104 -832 -1104 -912
WIRE -608 -752 -736 -752
WIRE -944 -704 -944 -912
WIRE -736 -704 -736 -752
WIRE -608 -656 -608 -752
WIRE -944 -608 -944 -624
WIRE -736 -608 -736 -640
WIRE -736 -608 -944 -608
WIRE -944 -592 -944 -608
WIRE -944 -592 -1072 -592
WIRE -944 -544 -944 -592
WIRE -1168 -464 -1232 -464
WIRE -992 -464 -1088 -464
WIRE -944 -368 -944 -448
WIRE -912 -160 -1056 -160
WIRE -112 -160 -912 -160
WIRE 176 -160 -32 -160
WIRE 224 -160 176 -160
WIRE 272 -160 224 -160
WIRE 320 -160 272 -160
WIRE 416 -160 384 -160
WIRE 576 -160 416 -160
WIRE 672 -160 640 -160
WIRE 816 -160 672 -160
WIRE 832 -160 816 -160
WIRE 928 -160 832 -160
WIRE 1296 -160 1024 -160
WIRE 1568 -160 1296 -160
WIRE 1680 -160 1568 -160
WIRE 1760 -160 1680 -160
WIRE 2000 -160 1760 -160
WIRE 2192 -160 2080 -160
WIRE 416 -128 416 -160
WIRE 1296 -128 1296 -160
WIRE 1760 -128 1760 -160
WIRE -1056 -112 -1056 -160
WIRE 2016 -112 1984 -112
WIRE 2080 -112 2064 -112
WIRE 1008 -96 1008 -112
WIRE 1568 -96 1568 -160
WIRE 672 -80 672 -160
WIRE 816 -80 816 -160
WIRE 2080 -80 2080 -112
WIRE 176 -16 176 -160
WIRE 272 -16 272 -160
WIRE 416 -16 416 -48
WIRE 1296 -16 1296 -48
WIRE 1760 16 1760 -48
WIRE 1984 16 1984 -112
WIRE 2000 16 1984 16
WIRE 2080 16 2080 -80
WIRE -1056 32 -1056 -32
WIRE 2192 32 2192 -160
WIRE -912 48 -912 -160
WIRE -784 48 -912 48
WIRE -48 48 -784 48
WIRE 80 48 -48 48
WIRE 496 48 368 48
WIRE 672 48 672 0
WIRE 672 48 496 48
WIRE 1568 64 1568 -32
WIRE 1296 80 1296 48
WIRE -912 144 -912 48
WIRE -784 144 -784 128
WIRE 0 144 -784 144
WIRE 80 144 0 144
WIRE 480 144 368 144
WIRE 816 144 816 0
WIRE 816 144 480 144
WIRE 1008 144 1008 -96
WIRE 1008 144 816 144
WIRE -784 160 -784 144
WIRE -48 160 -48 48
WIRE 48 240 -48 240
WIRE 80 240 48 240
WIRE 544 240 368 240
WIRE 640 240 544 240
WIRE -912 256 -912 208
WIRE -784 256 -784 240
WIRE 544 272 544 240
WIRE 640 272 640 240
WIRE 80 336 0 336
WIRE 416 336 368 336
WIRE 0 368 0 336
WIRE 416 368 416 336
WIRE 640 400 640 352
WIRE 0 496 0 448
WIRE 224 496 224 400
WIRE 416 496 416 432
WIRE 544 496 544 336
WIRE 640 496 640 464
FLAG 224 496 0
FLAG 416 -16 0
FLAG -1056 32 0
FLAG 1760 16 0
FLAG -912 -160 IN
FLAG 1680 -160 SOURCE
FLAG 416 336 SS
FLAG -912 256 0
FLAG 0 496 0
FLAG 416 496 0
FLAG 544 496 0
FLAG 640 496 0
FLAG 1568 64 0
FLAG 544 240 Vc
FLAG 224 -160 SW1/2
FLAG 48 240 FT
FLAG -784 256 0
FLAG 0 144 SHDN
FLAG 480 144 GATE
FLAG 496 48 FB
FLAG 832 -160 DRAIN
FLAG 2192 32 0
FLAG 2080 -80 SHORT
FLAG 1296 80 0
FLAG -944 -368 0
FLAG -608 -656 0
FLAG -1104 -752 0
FLAG -1232 -464 FT
IOPIN -1232 -464 In
FLAG -1072 -592 D_OUT
SYMBOL PowerProducts\\LT3579 224 192 R0
SYMATTR InstName U1
SYMBOL res 624 256 R0
SYMATTR InstName R_c
SYMATTR Value 12k
SYMATTR SpiceLine tol=5
SYMBOL cap 624 400 R0
WINDOW 3 36 57 Left 2
SYMATTR Value 2.2n
SYMATTR InstName C_c
SYMATTR SpiceLine V=450
SYMBOL cap 560 336 R180
WINDOW 0 24 56 Left 2
WINDOW 3 24 8 Left 2
SYMATTR InstName C_F
SYMATTR Value 47p
SYMATTR SpiceLine V=50
SYMBOL cap 400 368 R0
SYMATTR InstName C_SS
SYMATTR Value 0.022µ
SYMATTR SpiceLine V=25
SYMBOL res -16 352 R0
SYMATTR InstName R_T
SYMATTR Value 124k
SYMATTR SpiceLine tol=5
SYMBOL res 656 -96 R0
SYMATTR InstName R_FB
SYMATTR Value 150k
SYMATTR SpiceLine tol=1
SYMBOL cap 1552 -96 R0
WINDOW 123 48 35 Left 2
WINDOW 3 40 63 Left 2
SYMATTR Value2 x3
SYMATTR Value 4.7µ
SYMATTR InstName C_OUT
SYMATTR SpiceLine V=25 Irms=0 Rser=0.01 Lser=0 Rpar=0
SYMBOL cap -928 144 R0
WINDOW 123 24 84 Left 2
SYMATTR Value2 x2
SYMATTR InstName C_IN
SYMATTR Value 4.7µ
SYMATTR SpiceLine V=25 Irms=0 Rser=0.01 Lser=0
SYMBOL res -64 144 R0
SYMATTR InstName R_FAULT
SYMATTR Value 100k
SYMATTR SpiceLine tol=1
SYMBOL ind2 -16 -144 M270
WINDOW 0 32 56 VTop 2
WINDOW 3 5 56 VBottom 2
SYMATTR InstName L1
SYMATTR Value 8.2µ
SYMATTR Type ind
SYMATTR SpiceLine Ipk=10 Rser=55m
SYMBOL cap 384 -176 R90
WINDOW 0 0 32 VBottom 2
WINDOW 3 32 32 VTop 2
SYMATTR InstName C1
SYMATTR Value 4.7µ
SYMATTR SpiceLine V=25 Rser=0.01
SYMBOL ind2 400 -144 R0
SYMATTR InstName L2
SYMATTR Type ind
SYMATTR Value 8.2µ
SYMATTR SpiceLine Ipk=10 Rser=55m
SYMBOL voltage -1056 -128 R0
WINDOW 123 0 0 Left 0
WINDOW 39 24 44 Left 2
WINDOW 3 24 96 Invisible 2
SYMATTR SpiceLine Rser=0.4
SYMATTR Value 13
SYMATTR InstName V_Battery
SYMBOL res 1744 -144 R0
SYMATTR InstName R_LOAD
SYMATTR Value 14
SYMBOL res -800 32 R0
SYMATTR InstName R_UVLO1
SYMATTR Value 30k
SYMATTR SpiceLine tol=1
SYMBOL res -800 144 R0
SYMATTR InstName R_UVLO2
SYMATTR Value 5k
SYMATTR SpiceLine tol=0.1
SYMBOL res 800 -96 R0
SYMATTR InstName R_GATE
SYMATTR Value 10k
SYMBOL AutoGenerated\\RQ5E050AT 976 -112 R270
SYMATTR InstName U2
SYMBOL sw 1984 -160 R270
SYMATTR InstName S1
SYMBOL voltage 2096 16 M270
WINDOW 0 32 56 VTop 2
WINDOW 3 -32 56 VBottom 2
WINDOW 123 0 0 Left 0
WINDOW 39 0 0 Left 0
SYMATTR InstName V1
SYMATTR Value PULSE(0 1 3ms 0.01m .01m 1ms)
SYMBOL diode 576 -144 R270
WINDOW 0 32 32 VTop 2
WINDOW 3 0 32 VBottom 2
SYMATTR InstName D1
SYMBOL res 1280 -144 R0
SYMATTR InstName R1
SYMATTR Value 25.6k
SYMBOL LED 1280 -16 R0
SYMATTR InstName D2
SYMBOL nmos -992 -544 R0
SYMATTR InstName M1
SYMATTR Value RTR025N05
SYMBOL res -1184 -480 M90
WINDOW 0 0 56 VBottom 2
WINDOW 3 32 56 VTop 2
SYMATTR InstName R_LS_Gate
SYMATTR Value 100k
SYMBOL res -960 -720 R0
SYMATTR InstName R_LS_DRAIN
SYMATTR Value 10k
SYMBOL cap -752 -704 R0
SYMATTR InstName C_LS
SYMATTR Value 1n
SYMBOL voltage -1104 -848 R0
WINDOW 123 0 0 Left 0
WINDOW 39 0 0 Left 0
SYMATTR InstName V2
SYMATTR Value 3.3
TEXT 168 -216 Left 2 !K1 L1 L2 0.98
TEXT -456 568 Left 2 ;Note: C_SS is actually 0.22u  but has been changed to 0.022u  so that the rise time is smaller. Increases speed of simulation.
TEXT 1024 -88 Left 2 ;0A
TEXT -136 400 Left 2 ;700 khz
TEXT 664 256 Left 2 ;Compensator Circuit
TEXT 744 384 Left 2 ;100k Potentiometer = R_c for testing board
TEXT 1056 248 Left 2 !.tran 0 6ms 0
TEXT -16 -240 Left 2 ;MSD1278T Coupling Coefficient = 0.98
TEXT -552 -408 Left 7 ;Short-Circuit Protection Test
TEXT -1424 -456 Left 2 ;13V if HIGH
TEXT -1544 -592 Left 2 ;3.3V if FT is LOW. 0V if FT is HIGH
TEXT -1312 -816 Left 2 ;3.3Vout - LDO
